pcf
* control data
norestart regularisation
17 1342 17 0 1  
1 1 single point 1 0 0 noobsreref
60.0 -3.0 0.3 0.03 10 999 nolamforgive noderforgive
3.0 3.0 0.001 0    
0.1
30 0.01 3 3 0.01 3      
0 0 0 0 1          
* singular value decomposition
1
13 7e-07
0
* paramater groups
b absolute 0.01 0.0 switch 2.0 parabolic
a1 relative 0.01 0.0 switch 2.0 parabolic
a2 relative 0.0 0.0 switch 2.0 parabolic
a3 relative 0.01 0.0 switch 2.0 parabolic
a4 relative 0.01 0.0 switch 2.0 parabolic
g relative 0.01 0.0 switch 2.0 parabolic
h absolute 0.01 0.0 switch 2.0 parabolic
c relative 0.01 0.0 switch 2.0 parabolic
d relative 0.01 0.0 switch 2.0 parabolic
e relative 0.01 0.0 switch 2.0 parabolic
t04 relative 0.0 0.0 switch 2.0 parabolic
t4 relative 0.01 0.0 switch 2.0 parabolic
u4 relative 0.01 0.0 switch 2.0 parabolic
t01 relative 0.01 0.0 switch 2.0 parabolic
t1 relative 0.01 0.0 switch 2.0 parabolic
u1 relative 0.01 0.0 switch 2.0 parabolic
m absolute 0.01 0.0 switch 2.0 parabolic
* paramater data
none relative 0.31 -10000000000.0 1.0 b 1.0 0.0 1 0
none relative 0.12197 -10000000000.0 10000000000.0 a1 1.0 0.0 1 0
none relative 0.03449 -10000000000.0 10000000000.0 a2 1.0 0.0 1 0
none relative -0.0164 -10000000000.0 10000000000.0 a3 1.0 0.0 1 0
none relative 0.02038 -10000000000.0 10000000000.0 a4 1.0 0.0 1 0
none relative -19.9829 -10000000000.0 10000000000.0 g 1.0 0.0 1 0
none relative -2.71254 -10000000000.0 0.0 h 1.0 0.0 1 0
none relative -5.29094 -10000000000.0 10000000000.0 c 1.0 0.0 1 0
none relative -7.1458 -10000000000.0 10000000000.0 d 1.0 0.0 1 0
none relative -17.209 -10000000000.0 10000000000.0 e 1.0 0.0 1 0
none relative 2014.14 2014.05 2014.4 t04 1.0 0.0 1 0
none relative 30.0 0.01 80.0 t4 1.0 0.0 1 0
none relative -1.15363 -10000000000.0 10000000000.0 u4 1.0 0.0 1 0
none relative 2011.49 2011.45 2014.55 t01 1.0 0.0 1 0
none relative 20.0 10.0 30.0 t1 1.0 0.0 1 0
none relative -0.24 -0.6 -0.0 u1 1.0 0.0 1 0
none relative 0.0 -10000000000.0 10000000000.0 m 1.0 0.0 1 0
* observation groups
obsgroup 
* observation data 
 obs1 -0.06 0.75 obsgroup 
 obs2 0.0 0.75 obsgroup 
 obs3 -0.06 0.75 obsgroup 
 obs4 -0.16 0.666666666667 obsgroup 
 obs5 -0.34 0.666666666667 obsgroup 
 obs6 -0.02 0.75 obsgroup 
 obs7 -0.11 0.666666666667 obsgroup 
 obs8 -0.05 0.666666666667 obsgroup 
 obs9 -0.29 0.666666666667 obsgroup 
 obs10 -0.15 0.666666666667 obsgroup 
 obs11 -0.5 0.666666666667 obsgroup 
 obs12 -0.15 0.666666666667 obsgroup 
 obs13 0.55 0.75 obsgroup 
 obs14 -0.2 0.666666666667 obsgroup 
 obs15 -0.01 0.666666666667 obsgroup 
 obs16 -0.29 0.75 obsgroup 
 obs17 -0.14 0.75 obsgroup 
 obs18 -0.43 0.75 obsgroup 
 obs19 -0.04 0.666666666667 obsgroup 
 obs20 -0.26 0.666666666667 obsgroup 
 obs21 -0.05 0.666666666667 obsgroup 
 obs22 0.0 0.666666666667 obsgroup 
 obs23 -0.14 0.666666666667 obsgroup 
 obs24 -0.14 0.666666666667 obsgroup 
 obs25 -0.3 0.666666666667 obsgroup 
 obs26 0.03 0.666666666667 obsgroup 
 obs27 -0.14 0.75 obsgroup 
 obs28 -0.1 0.75 obsgroup 
 obs29 -0.2 0.75 obsgroup 
 obs30 0.05 0.75 obsgroup 
 obs31 0.38 0.666666666667 obsgroup 
 obs32 -0.26 0.666666666667 obsgroup 
 obs33 0.02 0.75 obsgroup 
 obs34 -0.04 0.75 obsgroup 
 obs35 -0.12 0.75 obsgroup 
 obs36 -0.33 0.75 obsgroup 
 obs37 -0.0 0.666666666667 obsgroup 
 obs38 0.54 0.666666666667 obsgroup 
 obs39 -0.2 0.75 obsgroup 
 obs40 0.08 0.75 obsgroup 
 obs41 0.18 0.666666666667 obsgroup 
 obs42 0.12 0.666666666667 obsgroup 
 obs43 0.16 0.75 obsgroup 
 obs44 -0.08 0.666666666667 obsgroup 
 obs45 -0.07 0.666666666667 obsgroup 
 obs46 -0.29 0.75 obsgroup 
 obs47 0.58 0.666666666667 obsgroup 
 obs48 0.04 0.75 obsgroup 
 obs49 -0.37 0.75 obsgroup 
 obs50 -0.22 0.75 obsgroup 
 obs51 -0.03 0.666666666667 obsgroup 
 obs52 -0.14 0.75 obsgroup 
 obs53 0.06 0.666666666667 obsgroup 
 obs54 -0.01 0.666666666667 obsgroup 
 obs55 0.07 0.666666666667 obsgroup 
 obs56 0.22 0.666666666667 obsgroup 
 obs57 0.34 0.666666666667 obsgroup 
 obs58 0.23 0.666666666667 obsgroup 
 obs59 -0.32 0.666666666667 obsgroup 
 obs60 0.11 0.75 obsgroup 
 obs61 0.22 0.75 obsgroup 
 obs62 0.03 0.857142857143 obsgroup 
 obs63 0.1 0.857142857143 obsgroup 
 obs64 0.6 0.857142857143 obsgroup 
 obs65 0.52 0.75 obsgroup 
 obs66 0.22 0.75 obsgroup 
 obs67 -0.36 0.75 obsgroup 
 obs68 0.55 0.75 obsgroup 
 obs69 0.79 0.666666666667 obsgroup 
 obs70 0.11 0.666666666667 obsgroup 
 obs71 -0.78 0.666666666667 obsgroup 
 obs72 0.01 0.666666666667 obsgroup 
 obs73 0.66 0.666666666667 obsgroup 
 obs74 -0.43 0.666666666667 obsgroup 
 obs75 -0.1 0.666666666667 obsgroup 
 obs76 0.16 0.75 obsgroup 
 obs77 0.6 0.75 obsgroup 
 obs78 0.39 0.666666666667 obsgroup 
 obs79 0.4 0.75 obsgroup 
 obs80 0.14 0.666666666667 obsgroup 
 obs81 0.22 0.75 obsgroup 
 obs82 0.37 0.666666666667 obsgroup 
 obs83 0.33 0.666666666667 obsgroup 
 obs84 0.77 0.75 obsgroup 
 obs85 0.21 0.75 obsgroup 
 obs86 -0.09 0.666666666667 obsgroup 
 obs87 0.17 0.75 obsgroup 
 obs88 -0.03 0.666666666667 obsgroup 
 obs89 0.05 0.75 obsgroup 
 obs90 0.05 0.666666666667 obsgroup 
 obs91 0.07 0.666666666667 obsgroup 
 obs92 0.54 0.75 obsgroup 
 obs93 0.6 0.666666666667 obsgroup 
 obs94 0.07 0.75 obsgroup 
 obs95 0.14 0.75 obsgroup 
 obs96 -0.48 0.75 obsgroup 
 obs97 0.43 0.75 obsgroup 
 obs98 0.74 0.75 obsgroup 
 obs99 0.82 0.75 obsgroup 
 obs100 1.48 0.75 obsgroup 
 obs101 0.25 0.75 obsgroup 
 obs102 1.03 0.75 obsgroup 
 obs103 0.71 0.75 obsgroup 
 obs104 0.1 0.75 obsgroup 
 obs105 0.47 0.75 obsgroup 
 obs106 0.42 0.666666666667 obsgroup 
 obs107 0.45 0.75 obsgroup 
 obs108 0.31 0.666666666667 obsgroup 
 obs109 0.52 0.75 obsgroup 
 obs110 0.03 0.666666666667 obsgroup 
 obs111 0.14 0.75 obsgroup 
 obs112 0.05 0.75 obsgroup 
 obs113 0.27 0.75 obsgroup 
 obs114 -0.78 0.857142857143 obsgroup 
 obs115 0.66 0.857142857143 obsgroup 
 obs116 1.14 0.857142857143 obsgroup 
 obs117 0.69 0.857142857143 obsgroup 
 obs118 0.28 1.0 obsgroup 
 obs119 0.06 1.0 obsgroup 
 obs120 0.39 1.0 obsgroup 
 obs121 0.46 1.0 obsgroup 
 obs122 0.72 0.857142857143 obsgroup 
 obs123 0.51 1.0 obsgroup 
 obs124 0.38 0.857142857143 obsgroup 
 obs125 0.46 0.857142857143 obsgroup 
 obs126 0.92 0.857142857143 obsgroup 
 obs127 0.69 0.857142857143 obsgroup 
 obs128 0.71 0.857142857143 obsgroup 
 obs129 0.53 0.857142857143 obsgroup 
 obs130 0.85 0.857142857143 obsgroup 
 obs131 0.71 0.857142857143 obsgroup 
 obs132 0.38 0.857142857143 obsgroup 
 obs133 0.48 0.857142857143 obsgroup 
 obs134 0.65 1.0 obsgroup 
 obs135 0.22 1.0 obsgroup 
 obs136 0.23 1.0 obsgroup 
 obs137 0.56 1.0 obsgroup 
 obs138 0.35 0.857142857143 obsgroup 
 obs139 0.73 1.0 obsgroup 
 obs140 0.66 0.857142857143 obsgroup 
 obs141 0.46 1.0 obsgroup 
 obs142 0.82 1.0 obsgroup 
 obs143 0.44 1.0 obsgroup 
 obs144 0.59 0.857142857143 obsgroup 
 obs145 0.15 0.857142857143 obsgroup 
 obs146 0.67 0.857142857143 obsgroup 
 obs147 0.52 0.857142857143 obsgroup 
 obs148 0.64 0.857142857143 obsgroup 
 obs149 0.58 0.857142857143 obsgroup 
 obs150 0.5 0.857142857143 obsgroup 
 obs151 0.33 0.857142857143 obsgroup 
 obs152 0.58 0.857142857143 obsgroup 
 obs153 0.57 0.75 obsgroup 
 obs154 0.61 0.857142857143 obsgroup 
 obs155 0.28 0.857142857143 obsgroup 
 obs156 0.69 0.857142857143 obsgroup 
 obs157 0.42 0.75 obsgroup 
 obs158 0.77 0.75 obsgroup 
 obs159 0.76 0.857142857143 obsgroup 
 obs160 0.54 0.857142857143 obsgroup 
 obs161 0.55 0.857142857143 obsgroup 
 obs162 0.62 0.857142857143 obsgroup 
 obs163 0.82 0.857142857143 obsgroup 
 obs164 0.64 0.857142857143 obsgroup 
 obs165 1.96 0.857142857143 obsgroup 
 obs166 0.73 0.857142857143 obsgroup 
 obs167 1.53 0.857142857143 obsgroup 
 obs168 2.05 0.857142857143 obsgroup 
 obs169 0.99 0.857142857143 obsgroup 
 obs170 1.28 0.857142857143 obsgroup 
 obs171 1.26 0.75 obsgroup 
 obs172 0.76 0.857142857143 obsgroup 
 obs173 0.54 0.75 obsgroup 
 obs174 0.81 0.857142857143 obsgroup 
 obs175 0.73 0.857142857143 obsgroup 
 obs176 1.19 0.75 obsgroup 
 obs177 0.86 0.857142857143 obsgroup 
 obs178 0.75 0.857142857143 obsgroup 
 obs179 0.77 0.857142857143 obsgroup 
 obs180 0.25 0.857142857143 obsgroup 
 obs181 0.95 0.857142857143 obsgroup 
 obs182 1.0 0.857142857143 obsgroup 
 obs183 1.19 0.857142857143 obsgroup 
 obs184 0.95 0.857142857143 obsgroup 
 obs185 0.88 0.857142857143 obsgroup 
 obs186 1.51 0.857142857143 obsgroup 
 obs187 1.06 0.75 obsgroup 
 obs188 1.44 0.857142857143 obsgroup 
 obs189 1.19 0.857142857143 obsgroup 
 obs190 0.96 0.857142857143 obsgroup 
 obs191 1.26 0.857142857143 obsgroup 
 obs192 0.81 0.857142857143 obsgroup 
 obs193 0.78 0.857142857143 obsgroup 
 obs194 1.48 0.857142857143 obsgroup 
 obs195 1.26 1.0 obsgroup 
 obs196 1.19 0.857142857143 obsgroup 
 obs197 0.99 0.857142857143 obsgroup 
 obs198 1.04 0.857142857143 obsgroup 
 obs199 0.59 0.857142857143 obsgroup 
 obs200 0.83 1.0 obsgroup 
 obs201 1.18 0.857142857143 obsgroup 
 obs202 0.82 0.857142857143 obsgroup 
 obs203 0.94 0.857142857143 obsgroup 
 obs204 0.69 0.857142857143 obsgroup 
 obs205 0.7 1.0 obsgroup 
 obs206 0.7 1.0 obsgroup 
 obs207 0.48 0.857142857143 obsgroup 
 obs208 0.86 0.857142857143 obsgroup 
 obs209 0.96 1.0 obsgroup 
 obs210 0.88 1.0 obsgroup 
 obs211 0.74 0.857142857143 obsgroup 
 obs212 1.02 1.0 obsgroup 
 obs213 0.85 1.0 obsgroup 
 obs214 0.78 1.0 obsgroup 
 obs215 0.82 0.857142857143 obsgroup 
 obs216 0.82 0.857142857143 obsgroup 
 obs217 0.58 0.857142857143 obsgroup 
 obs218 0.95 0.857142857143 obsgroup 
 obs219 0.63 0.857142857143 obsgroup 
 obs220 0.74 0.857142857143 obsgroup 
 obs221 0.6 1.0 obsgroup 
 obs222 0.84 1.0 obsgroup 
 obs223 1.03 1.0 obsgroup 
 obs224 0.63 1.0 obsgroup 
 obs225 0.35 0.857142857143 obsgroup 
 obs226 0.83 0.857142857143 obsgroup 
 obs227 0.42 0.857142857143 obsgroup 
 obs228 0.49 0.857142857143 obsgroup 
 obs229 0.8 0.857142857143 obsgroup 
 obs230 0.6 0.857142857143 obsgroup 
 obs231 0.64 0.857142857143 obsgroup 
 obs232 0.83 1.0 obsgroup 
 obs233 0.98 1.0 obsgroup 
 obs234 0.6 1.0 obsgroup 
 obs235 0.94 1.0 obsgroup 
 obs236 0.8 1.0 obsgroup 
 obs237 0.77 1.0 obsgroup 
 obs238 0.68 1.0 obsgroup 
 obs239 0.69 1.0 obsgroup 
 obs240 0.26 1.0 obsgroup 
 obs241 0.54 1.0 obsgroup 
 obs242 0.73 1.0 obsgroup 
 obs243 0.5 0.857142857143 obsgroup 
 obs244 0.83 1.0 obsgroup 
 obs245 0.64 0.857142857143 obsgroup 
 obs246 0.88 0.857142857143 obsgroup 
 obs247 0.57 0.857142857143 obsgroup 
 obs248 1.16 0.857142857143 obsgroup 
 obs249 1.0 0.857142857143 obsgroup 
 obs250 1.33 0.857142857143 obsgroup 
 obs251 0.62 0.857142857143 obsgroup 
 obs252 0.75 0.857142857143 obsgroup 
 obs253 0.82 0.857142857143 obsgroup 
 obs254 0.69 0.857142857143 obsgroup 
 obs255 1.09 1.0 obsgroup 
 obs256 0.85 1.0 obsgroup 
 obs257 0.65 0.857142857143 obsgroup 
 obs258 0.8 0.857142857143 obsgroup 
 obs259 0.8 0.857142857143 obsgroup 
 obs260 0.81 0.857142857143 obsgroup 
 obs261 0.81 0.857142857143 obsgroup 
 obs262 1.02 0.857142857143 obsgroup 
 obs263 0.94 0.857142857143 obsgroup 
 obs264 0.57 0.857142857143 obsgroup 
 obs265 0.78 0.857142857143 obsgroup 
 obs266 0.85 0.857142857143 obsgroup 
 obs267 0.48 0.857142857143 obsgroup 
 obs268 0.93 0.857142857143 obsgroup 
 obs269 0.69 0.857142857143 obsgroup 
 obs270 0.62 0.857142857143 obsgroup 
 obs271 0.1 0.857142857143 obsgroup 
 obs272 1.13 0.857142857143 obsgroup 
 obs273 1.16 0.857142857143 obsgroup 
 obs274 1.17 0.857142857143 obsgroup 
 obs275 1.65 0.857142857143 obsgroup 
 obs276 0.69 0.857142857143 obsgroup 
 obs277 0.63 0.857142857143 obsgroup 
 obs278 1.09 0.857142857143 obsgroup 
 obs279 1.02 0.857142857143 obsgroup 
 obs280 0.83 0.857142857143 obsgroup 
 obs281 0.94 0.857142857143 obsgroup 
 obs282 0.89 0.857142857143 obsgroup 
 obs283 0.79 0.857142857143 obsgroup 
 obs284 1.11 0.857142857143 obsgroup 
 obs285 1.32 0.857142857143 obsgroup 
 obs286 0.85 0.857142857143 obsgroup 
 obs287 0.86 0.857142857143 obsgroup 
 obs288 1.24 0.857142857143 obsgroup 
 obs289 1.08 0.857142857143 obsgroup 
 obs290 0.95 0.857142857143 obsgroup 
 obs291 0.97 0.857142857143 obsgroup 
 obs292 0.9 0.857142857143 obsgroup 
 obs293 1.25 0.857142857143 obsgroup 
 obs294 1.6 0.857142857143 obsgroup 
 obs295 1.39 0.857142857143 obsgroup 
 obs296 -0.1 0.857142857143 obsgroup 
 obs297 0.95 0.857142857143 obsgroup 
 obs298 1.25 0.857142857143 obsgroup 
 obs299 1.35 0.857142857143 obsgroup 
 obs300 1.2 0.857142857143 obsgroup 
 obs301 1.77 0.857142857143 obsgroup 
 obs302 0.82 0.857142857143 obsgroup 
 obs303 1.2 0.857142857143 obsgroup 
 obs304 1.08 0.857142857143 obsgroup 
 obs305 0.49 0.857142857143 obsgroup 
 obs306 0.91 0.857142857143 obsgroup 
 obs307 1.18 0.857142857143 obsgroup 
 obs308 1.31 0.857142857143 obsgroup 
 obs309 1.03 0.857142857143 obsgroup 
 obs310 1.61 0.857142857143 obsgroup 
 obs311 1.17 0.857142857143 obsgroup 
 obs312 0.99 0.857142857143 obsgroup 
 obs313 1.06 0.75 obsgroup 
 obs314 1.08 0.857142857143 obsgroup 
 obs315 1.25 0.857142857143 obsgroup 
 obs316 1.88 1.0 obsgroup 
 obs317 0.94 0.857142857143 obsgroup 
 obs318 0.94 0.857142857143 obsgroup 
 obs319 0.97 1.0 obsgroup 
 obs320 0.85 0.857142857143 obsgroup 
 obs321 0.98 1.0 obsgroup 
 obs322 0.97 0.857142857143 obsgroup 
 obs323 1.04 1.0 obsgroup 
 obs324 0.82 1.0 obsgroup 
 obs325 1.07 1.0 obsgroup 
 obs326 1.33 0.857142857143 obsgroup 
 obs327 1.19 0.857142857143 obsgroup 
 obs328 1.24 0.857142857143 obsgroup 
 obs329 1.02 1.0 obsgroup 
 obs330 1.27 0.857142857143 obsgroup 
 obs331 1.28 0.857142857143 obsgroup 
 obs332 1.43 0.857142857143 obsgroup 
 obs333 1.56 0.857142857143 obsgroup 
 obs334 1.64 0.857142857143 obsgroup 
 obs335 1.73 0.857142857143 obsgroup 
 obs336 1.39 0.857142857143 obsgroup 
 obs337 1.22 0.857142857143 obsgroup 
 obs338 1.53 0.857142857143 obsgroup 
 obs339 1.1 0.857142857143 obsgroup 
 obs340 1.17 0.857142857143 obsgroup 
 obs341 1.44 0.857142857143 obsgroup 
 obs342 1.17 0.857142857143 obsgroup 
 obs343 1.63 0.857142857143 obsgroup 
 obs344 1.44 0.857142857143 obsgroup 
 obs345 1.54 0.857142857143 obsgroup 
 obs346 1.29 0.857142857143 obsgroup 
 obs347 1.29 0.857142857143 obsgroup 
 obs348 1.49 0.857142857143 obsgroup 
 obs349 1.57 0.857142857143 obsgroup 
 obs350 1.7 0.857142857143 obsgroup 
 obs351 1.45 0.857142857143 obsgroup 
 obs352 1.37 0.857142857143 obsgroup 
 obs353 1.58 0.857142857143 obsgroup 
 obs354 1.34 0.857142857143 obsgroup 
 obs355 1.43 0.857142857143 obsgroup 
 obs356 1.99 0.857142857143 obsgroup 
 obs357 1.47 0.857142857143 obsgroup 
 obs358 1.04 0.857142857143 obsgroup 
 obs359 1.12 0.857142857143 obsgroup 
 obs360 1.34 0.857142857143 obsgroup 
 obs361 1.51 0.857142857143 obsgroup 
 obs362 1.16 0.857142857143 obsgroup 
 obs363 1.32 0.857142857143 obsgroup 
 obs364 1.51 0.857142857143 obsgroup 
 obs365 1.82 0.857142857143 obsgroup 
 obs366 1.35 0.857142857143 obsgroup 
 obs367 1.62 0.857142857143 obsgroup 
 obs368 1.55 0.857142857143 obsgroup 
 obs369 1.47 0.857142857143 obsgroup 
 obs370 1.34 0.857142857143 obsgroup 
 obs371 1.67 0.857142857143 obsgroup 
 obs372 1.5 0.857142857143 obsgroup 
 obs373 1.25 0.857142857143 obsgroup 
 obs374 1.32 0.857142857143 obsgroup 
 obs375 1.31 0.857142857143 obsgroup 
 obs376 1.06 0.857142857143 obsgroup 
 obs377 1.48 0.857142857143 obsgroup 
 obs378 0.84 0.857142857143 obsgroup 
 obs379 1.64 0.857142857143 obsgroup 
 obs380 1.46 0.857142857143 obsgroup 
 obs381 1.11 0.857142857143 obsgroup 
 obs382 1.47 0.857142857143 obsgroup 
 obs383 1.33 1.0 obsgroup 
 obs384 1.65 0.857142857143 obsgroup 
 obs385 1.04 0.857142857143 obsgroup 
 obs386 1.6 0.857142857143 obsgroup 
 obs387 1.43 0.857142857143 obsgroup 
 obs388 1.59 0.857142857143 obsgroup 
 obs389 1.63 0.857142857143 obsgroup 
 obs390 1.35 0.857142857143 obsgroup 
 obs391 1.78 0.857142857143 obsgroup 
 obs392 1.86 1.0 obsgroup 
 obs393 1.64 1.0 obsgroup 
 obs394 1.69 0.857142857143 obsgroup 
 obs395 1.86 1.0 obsgroup 
 obs396 1.51 1.0 obsgroup 
 obs397 1.85 0.857142857143 obsgroup 
 obs398 1.24 1.0 obsgroup 
 obs399 1.8 1.0 obsgroup 
 obs400 1.62 1.0 obsgroup 
 obs401 1.82 1.0 obsgroup 
 obs402 1.1 0.857142857143 obsgroup 
 obs403 1.49 0.857142857143 obsgroup 
 obs404 1.5 1.0 obsgroup 
 obs405 1.76 0.857142857143 obsgroup 
 obs406 1.38 0.857142857143 obsgroup 
 obs407 1.64 1.0 obsgroup 
 obs408 1.52 0.857142857143 obsgroup 
 obs409 1.9 1.0 obsgroup 
 obs410 1.96 0.857142857143 obsgroup 
 obs411 1.56 0.857142857143 obsgroup 
 obs412 1.52 0.857142857143 obsgroup 
 obs413 1.76 1.0 obsgroup 
 obs414 1.54 0.857142857143 obsgroup 
 obs415 1.82 0.857142857143 obsgroup 
 obs416 1.75 0.857142857143 obsgroup 
 obs417 1.69 0.857142857143 obsgroup 
 obs418 1.61 0.857142857143 obsgroup 
 obs419 1.62 0.857142857143 obsgroup 
 obs420 1.39 0.857142857143 obsgroup 
 obs421 1.59 0.857142857143 obsgroup 
 obs422 1.45 0.857142857143 obsgroup 
 obs423 1.31 0.857142857143 obsgroup 
 obs424 1.45 0.857142857143 obsgroup 
 obs425 1.23 0.857142857143 obsgroup 
 obs426 0.85 0.857142857143 obsgroup 
 obs427 1.64 0.857142857143 obsgroup 
 obs428 1.54 0.857142857143 obsgroup 
 obs429 1.07 0.857142857143 obsgroup 
 obs430 1.2 0.857142857143 obsgroup 
 obs431 1.46 0.857142857143 obsgroup 
 obs432 1.24 0.857142857143 obsgroup 
 obs433 1.12 0.857142857143 obsgroup 
 obs434 1.19 0.857142857143 obsgroup 
 obs435 1.42 0.857142857143 obsgroup 
 obs436 1.49 0.857142857143 obsgroup 
 obs437 1.22 0.857142857143 obsgroup 
 obs438 1.82 0.857142857143 obsgroup 
 obs439 1.12 0.857142857143 obsgroup 
 obs440 1.2 0.857142857143 obsgroup 
 obs441 1.49 0.857142857143 obsgroup 
 obs442 1.63 0.857142857143 obsgroup 
 obs443 1.08 0.857142857143 obsgroup 
 obs444 1.45 0.857142857143 obsgroup 
 obs445 0.9 0.857142857143 obsgroup 
 obs446 1.42 0.857142857143 obsgroup 
 obs447 1.36 0.857142857143 obsgroup 
 obs448 1.28 0.857142857143 obsgroup 
 obs449 1.29 0.857142857143 obsgroup 
 obs450 1.21 0.857142857143 obsgroup 
 obs451 1.35 0.857142857143 obsgroup 
 obs452 1.16 0.857142857143 obsgroup 
 obs453 1.64 0.75 obsgroup 
 obs454 1.77 0.857142857143 obsgroup 
 obs455 1.06 0.857142857143 obsgroup 
 obs456 1.7 0.857142857143 obsgroup 
 obs457 1.48 1.0 obsgroup 
 obs458 1.48 1.0 obsgroup 
 obs459 1.43 0.857142857143 obsgroup 
 obs460 1.34 1.0 obsgroup 
 obs461 1.48 1.0 obsgroup 
 obs462 1.52 1.0 obsgroup 
 obs463 1.44 1.0 obsgroup 
 obs464 2.06 1.0 obsgroup 
 obs465 1.14 1.0 obsgroup 
 obs466 1.43 1.0 obsgroup 
 obs467 1.47 0.857142857143 obsgroup 
 obs468 1.28 0.857142857143 obsgroup 
 obs469 1.4 1.0 obsgroup 
 obs470 1.45 1.0 obsgroup 
 obs471 1.14 0.857142857143 obsgroup 
 obs472 1.54 0.857142857143 obsgroup 
 obs473 1.29 0.857142857143 obsgroup 
 obs474 1.39 0.857142857143 obsgroup 
 obs475 1.52 1.0 obsgroup 
 obs476 1.65 0.857142857143 obsgroup 
 obs477 1.27 1.0 obsgroup 
 obs478 2.03 1.0 obsgroup 
 obs479 1.54 0.857142857143 obsgroup 
 obs480 1.29 1.0 obsgroup 
 obs481 1.4 1.0 obsgroup 
 obs482 1.64 1.0 obsgroup 
 obs483 1.82 1.0 obsgroup 
 obs484 1.78 1.0 obsgroup 
 obs485 1.5 1.0 obsgroup 
 obs486 1.97 0.857142857143 obsgroup 
 obs487 1.99 0.857142857143 obsgroup 
 obs488 1.63 0.857142857143 obsgroup 
 obs489 1.52 0.857142857143 obsgroup 
 obs490 1.64 0.857142857143 obsgroup 
 obs491 1.84 0.857142857143 obsgroup 
 obs492 1.59 0.857142857143 obsgroup 
 obs493 1.88 0.857142857143 obsgroup 
 obs494 1.7 0.857142857143 obsgroup 
 obs495 1.86 1.0 obsgroup 
 obs496 1.65 1.0 obsgroup 
 obs497 1.65 1.0 obsgroup 
 obs498 1.69 1.0 obsgroup 
 obs499 1.63 1.0 obsgroup 
 obs500 1.72 1.0 obsgroup 
 obs501 1.56 1.0 obsgroup 
 obs502 2.04 1.0 obsgroup 
 obs503 2.17 1.0 obsgroup 
 obs504 2.6 1.0 obsgroup 
 obs505 2.48 1.0 obsgroup 
 obs506 1.27 1.0 obsgroup 
 obs507 1.66 1.0 obsgroup 
 obs508 1.82 1.0 obsgroup 
 obs509 1.79 1.0 obsgroup 
 obs510 2.15 1.0 obsgroup 
 obs511 1.83 1.0 obsgroup 
 obs512 1.94 1.0 obsgroup 
 obs513 1.88 1.0 obsgroup 
 obs514 2.27 1.0 obsgroup 
 obs515 1.91 1.0 obsgroup 
 obs516 2.43 1.0 obsgroup 
 obs517 2.04 1.0 obsgroup 
 obs518 1.53 1.0 obsgroup 
 obs519 2.12 1.0 obsgroup 
 obs520 2.07 1.0 obsgroup 
 obs521 2.37 1.0 obsgroup 
 obs522 2.13 1.0 obsgroup 
 obs523 1.9 1.0 obsgroup 
 obs524 2.33 1.0 obsgroup 
 obs525 1.9 1.0 obsgroup 
 obs526 2.14 1.0 obsgroup 
 obs527 2.23 1.0 obsgroup 
 obs528 1.96 1.0 obsgroup 
 obs529 2.14 1.0 obsgroup 
 obs530 2.19 1.0 obsgroup 
 obs531 2.41 0.857142857143 obsgroup 
 obs532 2.19 1.0 obsgroup 
 obs533 2.1 1.0 obsgroup 
 obs534 1.96 1.0 obsgroup 
 obs535 2.51 1.0 obsgroup 
 obs536 2.28 1.0 obsgroup 
 obs537 2.31 1.0 obsgroup 
 obs538 2.36 1.0 obsgroup 
 obs539 2.08 1.0 obsgroup 
 obs540 2.24 0.857142857143 obsgroup 
 obs541 2.07 1.0 obsgroup 
 obs542 2.09 1.0 obsgroup 
 obs543 2.06 1.0 obsgroup 
 obs544 2.19 1.0 obsgroup 
 obs545 2.11 1.0 obsgroup 
 obs546 2.08 1.0 obsgroup 
 obs547 2.09 1.0 obsgroup 
 obs548 2.26 1.0 obsgroup 
 obs549 2.22 1.0 obsgroup 
 obs550 2.07 1.0 obsgroup 
 obs551 2.37 1.0 obsgroup 
 obs552 2.33 1.0 obsgroup 
 obs553 1.73 1.0 obsgroup 
 obs554 1.9 1.0 obsgroup 
 obs555 2.21 1.0 obsgroup 
 obs556 2.31 1.0 obsgroup 
 obs557 2.03 1.0 obsgroup 
 obs558 2.1 1.0 obsgroup 
 obs559 2.21 1.0 obsgroup 
 obs560 2.19 1.0 obsgroup 
 obs561 2.26 1.0 obsgroup 
 obs562 2.19 1.0 obsgroup 
 obs563 2.3 1.0 obsgroup 
 obs564 2.6 1.0 obsgroup 
 obs565 2.41 1.0 obsgroup 
 obs566 2.05 1.0 obsgroup 
 obs567 1.97 1.0 obsgroup 
 obs568 1.92 1.0 obsgroup 
 obs569 2.36 1.0 obsgroup 
 obs570 2.29 1.0 obsgroup 
 obs571 2.24 1.0 obsgroup 
 obs572 2.34 1.0 obsgroup 
 obs573 2.37 1.0 obsgroup 
 obs574 2.26 1.0 obsgroup 
 obs575 2.29 1.0 obsgroup 
 obs576 2.1 1.0 obsgroup 
 obs577 2.24 1.0 obsgroup 
 obs578 2.22 1.0 obsgroup 
 obs579 2.22 1.0 obsgroup 
 obs580 2.12 1.0 obsgroup 
 obs581 2.38 1.0 obsgroup 
 obs582 2.44 1.0 obsgroup 
 obs583 2.4 1.0 obsgroup 
 obs584 2.46 1.0 obsgroup 
 obs585 2.16 1.0 obsgroup 
 obs586 2.5 1.0 obsgroup 
 obs587 2.14 1.0 obsgroup 
 obs588 2.12 1.0 obsgroup 
 obs589 2.31 1.0 obsgroup 
 obs590 2.09 1.0 obsgroup 
 obs591 2.26 1.0 obsgroup 
 obs592 2.17 0.857142857143 obsgroup 
 obs593 1.6 0.857142857143 obsgroup 
 obs594 2.54 1.0 obsgroup 
 obs595 2.08 1.0 obsgroup 
 obs596 2.26 1.0 obsgroup 
 obs597 1.89 1.0 obsgroup 
 obs598 2.61 1.0 obsgroup 
 obs599 2.88 1.0 obsgroup 
 obs600 2.3 1.0 obsgroup 
 obs601 2.52 1.0 obsgroup 
 obs602 2.4 1.0 obsgroup 
 obs603 2.33 1.0 obsgroup 
 obs604 2.4 1.0 obsgroup 
 obs605 2.39 1.0 obsgroup 
 obs606 2.3 1.0 obsgroup 
 obs607 2.19 1.0 obsgroup 
 obs608 2.2 1.0 obsgroup 
 obs609 2.23 1.0 obsgroup 
 obs610 2.82 1.0 obsgroup 
 obs611 2.34 1.0 obsgroup 
 obs612 2.56 1.0 obsgroup 
 obs613 2.72 1.0 obsgroup 
 obs614 2.48 1.0 obsgroup 
 obs615 2.15 1.0 obsgroup 
 obs616 2.52 1.0 obsgroup 
 obs617 2.34 1.0 obsgroup 
 obs618 2.31 1.0 obsgroup 
 obs619 2.31 1.0 obsgroup 
 obs620 2.46 1.0 obsgroup 
 obs621 2.09 1.0 obsgroup 
 obs622 2.37 1.0 obsgroup 
 obs623 2.29 1.0 obsgroup 
 obs624 2.38 1.0 obsgroup 
 obs625 2.68 1.0 obsgroup 
 obs626 2.34 1.0 obsgroup 
 obs627 2.44 1.0 obsgroup 
 obs628 1.71 1.0 obsgroup 
 obs629 2.17 1.0 obsgroup 
 obs630 2.02 1.0 obsgroup 
 obs631 1.76 1.0 obsgroup 
 obs632 2.48 0.857142857143 obsgroup 
 obs633 2.77 0.857142857143 obsgroup 
 obs634 2.23 0.857142857143 obsgroup 
 obs635 2.53 0.857142857143 obsgroup 
 obs636 2.8 0.857142857143 obsgroup 
 obs637 2.77 0.857142857143 obsgroup 
 obs638 2.74 0.857142857143 obsgroup 
 obs639 2.79 0.857142857143 obsgroup 
 obs640 2.35 0.857142857143 obsgroup 
 obs641 2.77 0.857142857143 obsgroup 
 obs642 2.42 0.857142857143 obsgroup 
 obs643 2.89 0.857142857143 obsgroup 
 obs644 2.76 0.857142857143 obsgroup 
 obs645 2.97 0.857142857143 obsgroup 
 obs646 2.36 0.857142857143 obsgroup 
 obs647 2.75 0.857142857143 obsgroup 
 obs648 2.87 0.857142857143 obsgroup 
 obs649 2.67 1.0 obsgroup 
 obs650 2.77 1.0 obsgroup 
 obs651 2.5 1.0 obsgroup 
 obs652 2.41 1.0 obsgroup 
 obs653 2.85 1.0 obsgroup 
 obs654 2.25 1.0 obsgroup 
 obs655 1.83 1.0 obsgroup 
 obs656 2.85 0.857142857143 obsgroup 
 obs657 2.45 1.0 obsgroup 
 obs658 2.5 1.0 obsgroup 
 obs659 2.78 1.0 obsgroup 
 obs660 2.58 1.0 obsgroup 
 obs661 2.44 1.0 obsgroup 
 obs662 2.82 1.0 obsgroup 
 obs663 2.58 1.0 obsgroup 
 obs664 3.1 1.0 obsgroup 
 obs665 2.94 1.0 obsgroup 
 obs666 2.8 1.0 obsgroup 
 obs667 2.91 1.0 obsgroup 
 obs668 2.83 1.0 obsgroup 
 obs669 2.59 1.0 obsgroup 
 obs670 2.66 1.0 obsgroup 
 obs671 1.96 1.0 obsgroup 
 obs672 2.89 1.0 obsgroup 
 obs673 2.54 1.0 obsgroup 
 obs674 3.02 1.0 obsgroup 
 obs675 2.96 1.0 obsgroup 
 obs676 3.1 1.0 obsgroup 
 obs677 2.83 1.0 obsgroup 
 obs678 2.88 1.0 obsgroup 
 obs679 3.12 1.0 obsgroup 
 obs680 2.86 1.0 obsgroup 
 obs681 2.93 1.0 obsgroup 
 obs682 2.58 0.857142857143 obsgroup 
 obs683 3.03 0.857142857143 obsgroup 
 obs684 2.73 1.0 obsgroup 
 obs685 2.85 1.0 obsgroup 
 obs686 2.84 1.0 obsgroup 
 obs687 2.61 1.0 obsgroup 
 obs688 2.75 1.0 obsgroup 
 obs689 2.67 1.0 obsgroup 
 obs690 2.76 1.0 obsgroup 
 obs691 2.8 1.0 obsgroup 
 obs692 2.99 0.857142857143 obsgroup 
 obs693 2.95 1.0 obsgroup 
 obs694 2.98 1.0 obsgroup 
 obs695 2.69 1.0 obsgroup 
 obs696 3.24 1.0 obsgroup 
 obs697 3.06 1.0 obsgroup 
 obs698 3.27 1.0 obsgroup 
 obs699 2.71 1.0 obsgroup 
 obs700 3.28 1.0 obsgroup 
 obs701 3.41 1.0 obsgroup 
 obs702 2.98 1.0 obsgroup 
 obs703 3.1 0.857142857143 obsgroup 
 obs704 2.58 0.857142857143 obsgroup 
 obs705 2.82 1.0 obsgroup 
 obs706 3.01 1.0 obsgroup 
 obs707 3.1 0.857142857143 obsgroup 
 obs708 1.87 0.857142857143 obsgroup 
 obs709 2.76 1.0 obsgroup 
 obs710 3.38 1.0 obsgroup 
 obs711 2.87 1.0 obsgroup 
 obs712 2.78 0.857142857143 obsgroup 
 obs713 3.19 0.857142857143 obsgroup 
 obs714 3.05 0.857142857143 obsgroup 
 obs715 3.06 1.0 obsgroup 
 obs716 3.07 1.0 obsgroup 
 obs717 3.12 0.857142857143 obsgroup 
 obs718 2.99 1.0 obsgroup 
 obs719 2.97 1.0 obsgroup 
 obs720 3.05 1.0 obsgroup 
 obs721 3.04 1.0 obsgroup 
 obs722 3.16 1.0 obsgroup 
 obs723 2.99 1.0 obsgroup 
 obs724 3.01 1.0 obsgroup 
 obs725 3.27 1.0 obsgroup 
 obs726 3.18 1.0 obsgroup 
 obs727 3.23 1.0 obsgroup 
 obs728 3.63 1.0 obsgroup 
 obs729 3.0 1.0 obsgroup 
 obs730 3.12 1.0 obsgroup 
 obs731 3.38 0.857142857143 obsgroup 
 obs732 2.83 0.857142857143 obsgroup 
 obs733 3.05 1.0 obsgroup 
 obs734 3.01 1.0 obsgroup 
 obs735 3.05 1.0 obsgroup 
 obs736 3.22 1.0 obsgroup 
 obs737 3.13 1.0 obsgroup 
 obs738 3.07 1.0 obsgroup 
 obs739 2.91 1.0 obsgroup 
 obs740 3.19 1.0 obsgroup 
 obs741 3.26 1.0 obsgroup 
 obs742 2.95 1.0 obsgroup 
 obs743 3.19 1.0 obsgroup 
 obs744 2.97 1.0 obsgroup 
 obs745 3.17 1.0 obsgroup 
 obs746 3.0 0.857142857143 obsgroup 
 obs747 3.43 0.857142857143 obsgroup 
 obs748 3.13 0.857142857143 obsgroup 
 obs749 3.6 1.0 obsgroup 
 obs750 3.14 0.857142857143 obsgroup 
 obs751 2.98 0.857142857143 obsgroup 
 obs752 3.31 0.857142857143 obsgroup 
 obs753 3.14 0.857142857143 obsgroup 
 obs754 3.16 0.857142857143 obsgroup 
 obs755 3.05 0.857142857143 obsgroup 
 obs756 3.12 0.857142857143 obsgroup 
 obs757 3.32 0.857142857143 obsgroup 
 obs758 3.28 0.857142857143 obsgroup 
 obs759 3.08 0.857142857143 obsgroup 
 obs760 3.17 0.857142857143 obsgroup 
 obs761 3.14 0.857142857143 obsgroup 
 obs762 3.39 0.857142857143 obsgroup 
 obs763 3.86 0.857142857143 obsgroup 
 obs764 2.89 0.857142857143 obsgroup 
 obs765 3.13 0.857142857143 obsgroup 
 obs766 3.07 0.857142857143 obsgroup 
 obs767 3.23 0.857142857143 obsgroup 
 obs768 3.43 0.857142857143 obsgroup 
 obs769 2.99 0.857142857143 obsgroup 
 obs770 3.28 0.857142857143 obsgroup 
 obs771 3.23 1.0 obsgroup 
 obs772 3.23 0.857142857143 obsgroup 
 obs773 3.14 1.0 obsgroup 
 obs774 3.08 1.0 obsgroup 
 obs775 3.24 1.0 obsgroup 
 obs776 2.97 1.0 obsgroup 
 obs777 3.56 1.0 obsgroup 
 obs778 3.15 1.0 obsgroup 
 obs779 2.83 1.0 obsgroup 
 obs780 3.19 1.0 obsgroup 
 obs781 3.12 1.0 obsgroup 
 obs782 3.19 1.0 obsgroup 
 obs783 3.39 1.0 obsgroup 
 obs784 3.04 1.0 obsgroup 
 obs785 3.25 1.0 obsgroup 
 obs786 2.86 1.0 obsgroup 
 obs787 3.03 1.0 obsgroup 
 obs788 3.21 1.0 obsgroup 
 obs789 3.28 1.0 obsgroup 
 obs790 3.38 1.0 obsgroup 
 obs791 3.22 1.0 obsgroup 
 obs792 3.33 1.0 obsgroup 
 obs793 3.19 1.0 obsgroup 
 obs794 3.81 1.0 obsgroup 
 obs795 3.2 1.0 obsgroup 
 obs796 3.06 1.0 obsgroup 
 obs797 3.37 1.0 obsgroup 
 obs798 3.21 1.0 obsgroup 
 obs799 3.58 1.0 obsgroup 
 obs800 3.25 1.0 obsgroup 
 obs801 3.42 1.0 obsgroup 
 obs802 3.71 1.0 obsgroup 
 obs803 3.73 1.0 obsgroup 
 obs804 3.39 1.0 obsgroup 
 obs805 3.29 1.0 obsgroup 
 obs806 3.9 1.0 obsgroup 
 obs807 3.31 1.0 obsgroup 
 obs808 3.12 1.0 obsgroup 
 obs809 3.1 1.0 obsgroup 
 obs810 3.29 1.0 obsgroup 
 obs811 3.54 1.0 obsgroup 
 obs812 3.1 1.0 obsgroup 
 obs813 3.07 1.0 obsgroup 
 obs814 3.3 1.0 obsgroup 
 obs815 2.92 1.0 obsgroup 
 obs816 3.36 1.0 obsgroup 
 obs817 3.42 1.0 obsgroup 
 obs818 3.39 1.0 obsgroup 
 obs819 3.37 1.0 obsgroup 
 obs820 3.56 1.0 obsgroup 
 obs821 3.01 1.0 obsgroup 
 obs822 3.64 1.0 obsgroup 
 obs823 3.15 1.0 obsgroup 
 obs824 3.23 1.0 obsgroup 
 obs825 3.62 1.0 obsgroup 
 obs826 3.86 1.0 obsgroup 
 obs827 3.64 0.857142857143 obsgroup 
 obs828 3.73 1.0 obsgroup 
 obs829 4.01 1.0 obsgroup 
 obs830 3.6 1.0 obsgroup 
 obs831 3.5 1.0 obsgroup 
 obs832 3.39 1.0 obsgroup 
 obs833 3.6 1.0 obsgroup 
 obs834 3.99 1.0 obsgroup 
 obs835 3.49 1.0 obsgroup 
 obs836 3.41 1.0 obsgroup 
 obs837 3.64 1.0 obsgroup 
 obs838 3.6 1.0 obsgroup 
 obs839 3.59 1.0 obsgroup 
 obs840 3.43 1.0 obsgroup 
 obs841 3.52 1.0 obsgroup 
 obs842 3.71 1.0 obsgroup 
 obs843 3.52 1.0 obsgroup 
 obs844 3.57 1.0 obsgroup 
 obs845 3.61 1.0 obsgroup 
 obs846 3.49 1.0 obsgroup 
 obs847 3.72 1.0 obsgroup 
 obs848 3.89 1.0 obsgroup 
 obs849 3.65 1.0 obsgroup 
 obs850 3.85 1.0 obsgroup 
 obs851 3.64 1.0 obsgroup 
 obs852 4.04 1.0 obsgroup 
 obs853 3.81 1.0 obsgroup 
 obs854 3.72 1.0 obsgroup 
 obs855 3.76 1.0 obsgroup 
 obs856 3.78 1.0 obsgroup 
 obs857 3.76 1.0 obsgroup 
 obs858 3.58 1.0 obsgroup 
 obs859 3.92 1.0 obsgroup 
 obs860 4.03 1.0 obsgroup 
 obs861 3.88 1.0 obsgroup 
 obs862 4.01 1.0 obsgroup 
 obs863 4.15 1.0 obsgroup 
 obs864 4.16 1.0 obsgroup 
 obs865 4.05 1.0 obsgroup 
 obs866 3.86 1.0 obsgroup 
 obs867 4.47 1.0 obsgroup 
 obs868 4.37 1.0 obsgroup 
 obs869 4.14 1.0 obsgroup 
 obs870 4.15 1.0 obsgroup 
 obs871 4.02 1.0 obsgroup 